Version 4
SHEET 1 976 680
WIRE 480 -32 320 -32
WIRE 416 64 -64 64
WIRE 560 64 416 64
WIRE 320 80 320 -32
WIRE 384 80 320 80
WIRE 16 96 -144 96
WIRE 480 96 480 -32
WIRE 480 96 448 96
WIRE 624 96 480 96
WIRE 800 96 752 96
WIRE 912 96 880 96
WIRE 272 112 176 112
WIRE 384 112 272 112
WIRE 272 144 272 112
WIRE -64 160 -64 64
WIRE -144 176 -144 96
WIRE -96 176 -144 176
WIRE 560 176 560 64
WIRE 560 176 416 176
WIRE 832 176 560 176
WIRE 16 192 16 96
WIRE 16 192 -32 192
WIRE 96 192 96 112
WIRE 96 192 16 192
WIRE 480 192 320 192
WIRE 832 192 832 176
WIRE -176 208 -320 208
WIRE -96 208 -176 208
WIRE 704 208 704 96
WIRE 752 208 752 96
WIRE 752 208 704 208
WIRE 800 208 752 208
WIRE -176 224 -176 208
WIRE 272 224 272 208
WIRE 912 224 912 96
WIRE 912 224 864 224
WIRE 416 272 416 176
WIRE 320 288 320 192
WIRE 384 288 320 288
WIRE 480 304 480 192
WIRE 480 304 448 304
WIRE 624 304 480 304
WIRE 704 304 704 208
WIRE 96 320 96 192
WIRE 272 320 160 320
WIRE 384 320 272 320
WIRE 272 352 272 320
FLAG -320 288 0
FLAG 416 336 0
FLAG 416 128 0
FLAG 832 256 0
FLAG 560 256 0
FLAG 560 512 0
FLAG 560 432 2.5VRef
FLAG 272 432 2.5VRef
FLAG 272 224 2.5VRef
FLAG 800 240 2.5VRef
FLAG -64 224 0
FLAG -176 304 0
SYMBOL res 192 96 R90
WINDOW 0 0 56 VBottom 2
WINDOW 3 32 56 VTop 2
SYMATTR InstName R1
SYMATTR Value 10.64k
SYMBOL cap 256 144 R0
SYMATTR InstName C1
SYMATTR Value .5µF
SYMBOL voltage -320 192 R0
WINDOW 3 24 152 Left 2
WINDOW 123 25 130 Left 2
WINDOW 39 0 0 Left 2
SYMATTR Value SINE(2.5V 0.001 65)
SYMATTR Value2 AC 0.01V
SYMATTR InstName V1
SYMBOL cap 160 304 R90
WINDOW 0 0 32 VBottom 2
WINDOW 3 32 32 VTop 2
SYMATTR InstName C2
SYMATTR Value .5µF
SYMBOL res 256 336 R0
SYMATTR InstName R2
SYMATTR Value 2.27k
SYMBOL res 720 80 R90
WINDOW 0 0 56 VBottom 2
WINDOW 3 32 56 VTop 2
SYMATTR InstName R3
SYMATTR Value 10k
SYMBOL res 720 288 R90
WINDOW 0 0 56 VBottom 2
WINDOW 3 32 56 VTop 2
SYMATTR InstName R4
SYMATTR Value 10k
SYMBOL Misc\\battery 560 160 R0
WINDOW 123 0 0 Left 2
WINDOW 39 0 0 Left 2
SYMATTR InstName V2
SYMATTR Value 5V
SYMBOL Misc\\battery 560 416 R0
WINDOW 123 0 0 Left 2
WINDOW 39 0 0 Left 2
SYMATTR InstName V3
SYMATTR Value 2.5V
SYMBOL Opamps\\UniversalOpamp2 832 224 R0
SYMATTR InstName U1
SYMBOL Opamps\\UniversalOpamp2 416 304 R0
SYMATTR InstName U2
SYMBOL Opamps\\UniversalOpamp2 416 96 R0
SYMATTR InstName U3
SYMBOL Opamps\\UniversalOpamp2 -64 192 R0
SYMATTR InstName U5
SYMBOL res -192 208 R0
SYMATTR InstName R7
SYMATTR Value 1000000
SYMBOL res 896 80 R90
WINDOW 0 0 56 VBottom 2
WINDOW 3 32 56 VTop 2
SYMATTR InstName R8
SYMATTR Value 10k
TEXT -178 568 Left 2 !.ac dec 200 1 20000
